hello Everyone.
i am Ankit.
good morning.
new line.

